[pyrat]

# Pyrat Bay run mode, select from: [tli pt atmosphere spectrum opacity mcmc]
runmode = atmosphere

# Pressure array:
punits  = bar    ; Default pressure units
pbottom = 100.0  ; Bottom-layer pressure  (default units: punits)
ptop    = 1e-18  ; Top-layer pressure (default units: punits)
nlayers = 250    ; Number of atmospheric layers
          
# Wavelength sampling options:
wlunits = um
wllow   = 5870 A ; Spectrum lower boundary (default units: wlunits)
wlhigh  = 5916 A ; Spectrum higher boundary (default units: wlunits)

# Wavenumber options:
wnunits = cm
wnstep  = 0.028  ; Sampling rate (default units: wnunits)
wnosamp = 2160   ; Wavenumber over-sampling rate

# System parameters:
radunits = km         ; Default distance units
rstar    = 1.038 rsun ; Stellar radius
mstar    = 1.003 msun ; Stellar mass
tstar    = 5602       ; Stellar effective temperature
rplanet  = 76928 km   ; Planetary radius
mplanet  = 0.396 mjup ; Planetary mass
smaxis   = 0.03873 au ; Orbital semi-major axis
refpressure = 0.1     ; Reference pressure at rplanet

# Atmospheric model:
atmfile  = WASP-49b_100.0xsolar_hires.atm  ; Input/output atmospheric file
elements = H He C N O Na K Ti V            ; Input elemental composition
species  = H He C N O Na K Ti V H2 H2O CH4 CO CO2 TiO VO ; Output species
xsolar   = 100.0                           ; Solar-metallicity scaling factor


# Temperature-profile model, select from: [isothermal TCEA MadhuInv MadhuNoInv]
tmodel = MadhuInv
#         a1    a2   p1   p2       p3   T3
tparams = 100.3 0.05 1e-8 8.999e-8 9e-8 1000

nproc = 6

# Verbosity level [1--5]:
verb  = 4

# Output file names:
logfile = ./WASP-49b_hires_100.0xsolar.log
outspec = ./WASP-49b_hires_100.0xsolar.dat
